/*--------------------------------*- C++ -*----------------------------------*\
| =========                 |                                                 |
| \\      /  F ield         | OpenFOAM: The Open Source CFD Toolbox           |
|  \\    /   O peration     | Version:  4.1                                   |
|   \\  /    A nd           | Web:      www.OpenFOAM.org                      |
|    \\/     M anipulation  |                                                 |
\*---------------------------------------------------------------------------*/
FoamFile
{
    version     2.0;
    format      ascii;
    class       polyBoundaryMesh;
    location    "constant/polyMesh";
    object      boundary;
}
// * * * * * * * * * * * * * * * * * * * * * * * * * * * * * * * * * * * * * //

6
(
    fixed
    {
        type            patch;
        physicalType    patch;
        nFaces          3312;
        startFace       3096;
    }
    inlet1
    {
        type            patch;
        physicalType    patch;
        nFaces          9;
        startFace       6408;
    }
    cavity
    {
        type            patch;
        physicalType    patch;
        nFaces          180;
        startFace       6417;
    }
    outlet1
    {
        type            patch;
        physicalType    patch;
        nFaces          9;
        startFace       6597;
    }
    inlet2
    {
        type            patch;
        physicalType    patch;
        nFaces          9;
        startFace       6606;
    }
    outlet2
    {
        type            patch;
        physicalType    patch;
        nFaces          9;
        startFace       6615;
    }
)

// ************************************************************************* //
