/*--------------------------------*- C++ -*----------------------------------*\
| =========                 |                                                 |
| \\      /  F ield         | OpenFOAM: The Open Source CFD Toolbox           |
|  \\    /   O peration     | Version:  4.1                                   |
|   \\  /    A nd           | Web:      www.OpenFOAM.org                      |
|    \\/     M anipulation  |                                                 |
\*---------------------------------------------------------------------------*/
FoamFile
{
    version     2.0;
    format      ascii;
    class       volScalarField;
    object      T;
}
// * * * * * * * * * * * * * * * * * * * * * * * * * * * * * * * * * * * * * //

dimensions      [0 0 0 1 0 0 0];

internalField   uniform 0;

boundaryField
{
    inlet1
    {
        type            fixedValue;
        value           uniform 1;
    }
    inlet2
    {
        type            fixedValue;
        value           uniform 1;
    }

    outlet1
    {
        type            zeroGradient;
    }

    outlet2
    {
        type            zeroGradient;
    }
    fixed
    {
        type            zeroGradient;
    }

    cavity
    {
        type            zeroGradient;
    }


}

// ************************************************************************* //
